Mass spectrum: 1-(3-Chlorophenyl)piperazine; LC-ESI-ITFT; MS2; CE: 90%; R=7500; [M+H]+
Name: 1-(3-Chlorophenyl)piperazine
Formula: C10H13ClN2
Exact mass: 196.0767
SMILES: c1c(Cl)cccc1N1CCNCC1
InChI: InChI=1S/C10H13ClN2/c11-9-2-1-3-10(8-9)13-6-4-12-5-7-13/h1-3,8,12H,4-7H2
Instrument: LTQ Orbitrap XL Thermo Scientific
Instrument type: LC-ESI-ITFT
Ms type: MS2
Ion mode: POSITIVE
Ionization: ESI
Fragmentation mode: HCD
Collision energy: 90 % (nominal)
Resolution: 7500
Retention time: 5.179 min
Base peak: 197.0843
Precursor m/z: 197.084
Precursor type: [M+H]+
Precursor intensity: 7330521.5
m/z	relative intensity	assigned
56.0493	8	C3H6N+
58.0651	9	C3H8N+
70.065	31	C4H8N+
77.0385	20	C6H5+
91.0542	71	C7H7+
92.0621	34	C7H8+
98.9997	8	C5H4Cl+
104.0494	75	C7H6N+
105.0446	6	C6H5N2+
110.9996	18	C6H4Cl+
112.0074	27	C6H5Cl+
113.0155	6	C6H6Cl+
117.0574	49	C8H7N+
118.0651	911	C8H8N+
119.0729	879	C8H9N+
120.0807	8	C8H10N+
126.0105	21	C6H5ClN+
127.0182	18	C6H6ClN+
130.0651	20	C9H8N+
132.0813	7	C9H10N+
138.0105	43	C7H5ClN+
139.0056	45	C6H4ClN2+
140.026	140	C7H7ClN+
144.0804	21	C10H10N+
145.0885	12	C10H11N+
152.026	20	C8H7ClN+
154.0417	999	C8H9ClN+
160.0994	6	C10H12N2+
166.0415	39	C9H9ClN+
180.0582	4	C10H11ClN+
195.0685	14	C10H12ClN2+
