Mass spectrum: 1-(3-Chlorophenyl)piperazine; LC-ESI-ITFT; MS2; CE: 30%; R=15000; [M+H]+
Name: 1-(3-Chlorophenyl)piperazine
Formula: C10H13ClN2
Exact mass: 196.0767
SMILES: c1c(Cl)cccc1N1CCNCC1
InChI: InChI=1S/C10H13ClN2/c11-9-2-1-3-10(8-9)13-6-4-12-5-7-13/h1-3,8,12H,4-7H2
Instrument: LTQ Orbitrap XL Thermo Scientific
Instrument type: LC-ESI-ITFT
Ms type: MS2
Ion mode: POSITIVE
Ionization: ESI
Fragmentation mode: HCD
Collision energy: 30 % (nominal)
Resolution: 15000
Retention time: 5.179 min
Base peak: 197.0843
Precursor m/z: 197.084
Precursor type: [M+H]+
Precursor intensity: 7330521.5
m/z	relative intensity	assigned
119.0729	2	C8H9N+
154.042	26	C8H9ClN+
195.0684	3	C10H12ClN2+
197.0841	999	C10H14ClN2+
