Mass spectrum: 1-(3-Chlorophenyl)piperazine; LC-ESI-ITFT; MS2; CE: 60%; R=7500; [M+H]+
Name: 1-(3-Chlorophenyl)piperazine
Formula: C10H13ClN2
Exact mass: 196.0767
SMILES: c1c(Cl)cccc1N1CCNCC1
InChI: InChI=1S/C10H13ClN2/c11-9-2-1-3-10(8-9)13-6-4-12-5-7-13/h1-3,8,12H,4-7H2
Instrument: LTQ Orbitrap XL Thermo Scientific
Instrument type: LC-ESI-ITFT
Ms type: MS2
Ion mode: POSITIVE
Ionization: ESI
Fragmentation mode: HCD
Collision energy: 60 % (nominal)
Resolution: 7500
Retention time: 5.179 min
Base peak: 197.0843
Precursor m/z: 197.084
Precursor type: [M+H]+
Precursor intensity: 7330521.5
m/z	relative intensity	assigned
58.0649	2	C3H8N+
70.0652	18	C4H8N+
117.0568	5	C8H7N+
118.0651	49	C8H8N+
119.073	248	C8H9N+
130.0645	2	C9H8N+
138.0106	6	C7H5ClN+
140.0261	23	C7H7ClN+
144.0812	4	C10H10N+
145.0885	14	C10H11N+
152.0261	13	C8H7ClN+
154.0418	999	C8H9ClN+
166.042	10	C9H9ClN+
167.0364	2	C8H8ClN2+
168.0453	4	C8H9ClN2+
168.0577	5	C9H11ClN+
180.0574	25	C10H11ClN+
195.0683	85	C10H12ClN2+
197.0842	630	C10H14ClN2+
