Mass spectrum: 1-(3-(Trifluoromethyl)phenyl)piperazine; LC-ESI-ITFT; MS2; CE: 60%; R=7500; [M+H]+
Name: 1-(3-(Trifluoromethyl)phenyl)piperazine
Formula: C11H13F3N2
Exact mass: 230.1031
SMILES: c1c(C(F)(F)F)cccc1N1CCNCC1
InChI: InChI=1S/C11H13F3N2/c12-11(13,14)9-2-1-3-10(8-9)16-6-4-15-5-7-16/h1-3,8,15H,4-7H2
Instrument: LTQ Orbitrap XL Thermo Scientific
Instrument type: LC-ESI-ITFT
Ms type: MS2
Ion mode: POSITIVE
Ionization: ESI
Fragmentation mode: HCD
Collision energy: 60 % (nominal)
Resolution: 7500
Retention time: 5.923 min
Base peak: 231.1103
Precursor m/z: 231.1104
Precursor type: [M+H]+
Precursor intensity: 14091871
m/z	relative intensity	assigned
58.0651	2	C3H8N+
70.0651	23	C4H8N+
117.0572	3	C8H7N+
118.0651	4	C8H8N+
119.0729	44	C8H9N+
141.0513	2	C8H7F2+
148.0564	8	C9H7FN+
166.046	8	C9H6F2N+
168.0619	23	C9H8F2N+
172.0366	6	C8H5F3N+
174.0528	21	C8H7F3N+
186.0525	22	C9H7F3N+
188.0682	999	C9H9F3N+
200.0684	14	C10H9F3N+
201.0629	3	C9H8F3N2+
214.0839	14	C11H11F3N+
229.0947	54	C11H12F3N2+
231.1101	335	C11H14F3N2+
