Mass spectrum: 1-(3-(Trifluoromethyl)phenyl)piperazine; LC-ESI-ITFT; MS2; CE: 45%; R=7500; [M+H]+
Name: 1-(3-(Trifluoromethyl)phenyl)piperazine
Formula: C11H13F3N2
Exact mass: 230.1031
SMILES: c1c(C(F)(F)F)cccc1N1CCNCC1
InChI: InChI=1S/C11H13F3N2/c12-11(13,14)9-2-1-3-10(8-9)16-6-4-15-5-7-16/h1-3,8,15H,4-7H2
Instrument: LTQ Orbitrap XL Thermo Scientific
Instrument type: LC-ESI-ITFT
Ms type: MS2
Ion mode: POSITIVE
Ionization: ESI
Fragmentation mode: HCD
Collision energy: 45 % (nominal)
Resolution: 7500
Retention time: 5.923 min
Base peak: 231.1103
Precursor m/z: 231.1104
Precursor type: [M+H]+
Precursor intensity: 14091871
m/z	relative intensity	assigned
70.0652	7	C4H8N+
119.0729	3	C8H9N+
188.0681	431	C9H9F3N+
214.0834	13	C11H11F3N+
229.0945	44	C11H12F3N2+
231.1102	999	C11H14F3N2+
