Mass spectrum: 1-(3-Chlorophenyl)piperazine; LC-ESI-ITFT; MS2; CE: 60%; R=15000; [M+H]+
Name: 1-(3-Chlorophenyl)piperazine
Formula: C10H13ClN2
Exact mass: 196.0767
SMILES: c1c(Cl)cccc1N1CCNCC1
InChI: InChI=1S/C10H13ClN2/c11-9-2-1-3-10(8-9)13-6-4-12-5-7-13/h1-3,8,12H,4-7H2
Instrument: LTQ Orbitrap XL Thermo Scientific
Instrument type: LC-ESI-ITFT
Ms type: MS2
Ion mode: POSITIVE
Ionization: ESI
Fragmentation mode: HCD
Collision energy: 60 % (nominal)
Resolution: 15000
Retention time: 5.179 min
Base peak: 197.0843
Precursor m/z: 197.084
Precursor type: [M+H]+
Precursor intensity: 7330521.5
m/z	relative intensity	assigned
58.065	3	C3H8N+
70.0651	20	C4H8N+
91.0542	2	C7H7+
117.0571	5	C8H7N+
118.0651	55	C8H8N+
119.073	264	C8H9N+
120.0808	2	C8H10N+
130.0649	1	C9H8N+
138.0104	4	C7H5ClN+
140.0261	25	C7H7ClN+
144.081	5	C10H10N+
145.0886	12	C10H11N+
151.0185	1	C8H6ClN+
152.026	12	C8H7ClN+
154.0419	999	C8H9ClN+
160.0996	1	C10H12N2+
162.1151	1	C10H14N2+
166.0418	10	C9H9ClN+
167.037	3	C8H8ClN2+
168.0445	2	C8H9ClN2+
168.0572	4	C9H11ClN+
180.0574	28	C10H11ClN+
195.0683	87	C10H12ClN2+
197.0841	632	C10H14ClN2+
