Mass spectrum: 1-(3-Chlorophenyl)piperazine; LC-ESI-ITFT; MS2; CE: 35%; R=7500; [M+H]+
Name: 1-(3-Chlorophenyl)piperazine
Formula: C10H13ClN2
Exact mass: 196.0767
SMILES: c1c(Cl)cccc1N1CCNCC1
InChI: InChI=1S/C10H13ClN2/c11-9-2-1-3-10(8-9)13-6-4-12-5-7-13/h1-3,8,12H,4-7H2
Instrument: LTQ Orbitrap XL Thermo Scientific
Instrument type: LC-ESI-ITFT
Ms type: MS2
Ion mode: POSITIVE
Ionization: ESI
Fragmentation mode: CID
Collision energy: 35 % (nominal)
Resolution: 7500
Retention time: 5.179 min
Base peak: 197.0843
Precursor m/z: 197.084
Precursor type: [M+H]+
Precursor intensity: 7330521.5
m/z	relative intensity	assigned
70.0651	3	C4H8N+
110.9997	1	C6H4Cl+
117.0573	2	C8H7N+
118.0655	8	C8H8N+
119.073	92	C8H9N+
140.0262	34	C7H7ClN+
145.0886	6	C10H11N+
152.0263	32	C8H7ClN+
154.0419	999	C8H9ClN+
160.0996	3	C10H12N2+
166.042	28	C9H9ClN+
167.037	8	C8H8ClN2+
178.0412	4	C10H9ClN+
180.0575	41	C10H11ClN+
197.0842	57	C10H14ClN2+
